CM LPDA - Parâmetros (tau=0.915, sigma=0.169)
CM F = 600 MHz, BW = 40% (480–720 MHz)
CE
SY R=0.006
SY L1=0.167200 ,L2=0.153000 ,L3=0.140000 ,L4=0.128000 ,L5=0.117000 ,L6=0.107000
SY L7=0.098000 ,L8=0.089700 ,L9=0.082100 ,L10=0.075100 ,L11=0.068500
SY D1=0.000000 ,D2=0.113000 ,D3=0.103400 ,D4=0.094700 ,D5=0.086800 ,D6=0.079600
SY D7=0.073000 ,D8=0.067000 ,D9=0.061400 ,D10=0.056300 ,D11=0.051700
SY X1=D1
SY X2=X1+D2
SY X3=X2+D3
SY X4=X3+D4
SY X5=X4+D5
SY X6=X5+D6
SY X7=X6+D7
SY X8=X7+D8
SY X9=X8+D9
SY X10=X9+D10
SY X11=X10+D11
GW	1	21	X1	0	-L1	X1	0	L1	R
GW	2	21	X2	0	-L2	X2	0	L2	R
GW	3	21	X3	0	-L3	X3	0	L3	R
GW	4	21	X4	0	-L4	X4	0	L4	R
GW	5	21	X5	0	-L5	X5	0	L5	R
GW	6	21	X6	0	-L6	X6	0	L6	R
GW	7	21	X7	0	-L7	X7	0	L7	R
GW	8	21	X8	0	-L8	X8	0	L8	R
GW	9	21	X9	0	-L9	X9	0	L9	R
GW	10	21	X10	0	-L10	X10	0	L10	R
GW	11	21	X11	0	-L11	X11	0	L11	R
GE	0
GN	-1
EK
EX	0	11	11	0	1.	0	0
TL	1	11	2	11	-50.	0	0	0	0	0
TL	2	11	3	11	-50.	0	0	0	0	0
TL	3	11	4	11	-50.	0	0	0	0	0
TL	4	11	5	11	-50.	0	0	0	0	0
TL	5	11	6	11	-50.	0	0	0	0	0
TL	6	11	7	11	-50.	0	0	0	0	0
TL	7	11	8	11	-50.	0	0	0	0	0
TL	8	11	9	11	-50.	0	0	0	0	0
TL	9	11	10	11	-50.	0	0	0	0	0
TL	10	11	11	11	-50.	0	0	0	0	0
FR	0	0	0	0	720	0
RP	0	73	73	1001	-90.	90.	5.	5.	10000.	
EN
