CM Antena dipolo com freqÍncia de 600MHz
CM 
CM 
CE
GW	1	9	0	0	-.12	0	0	.12	.0001	'Wire 1, 9 segments, halve wavelength long.
GE	0
GN	-1
EK
EX	0	1	5	0	1	0	0	'Voltage source (1+j0) at wire 1 segment 5.
FR	0	0	0	0	600	0
EN
